data_image0
_chemical_formula_structural       Ni2Fe4O20N8C8H8C32H8C24H16C16H16C16
_chemical_formula_sum              "Ni2 Fe4 O20 N8 C96 H48"
_cell_length_a       6.8484
_cell_length_b       32.9205
_cell_length_c       16.5679
_cell_angle_alpha    90
_cell_angle_beta     90
_cell_angle_gamma    90

_space_group_name_H-M_alt    "P 1"
_space_group_IT_number       1

loop_
  _space_group_symop_operation_xyz
  'x, y, z'

loop_
  _atom_site_type_symbol
  _atom_site_label
  _atom_site_symmetry_multiplicity
  _atom_site_fract_x
  _atom_site_fract_y
  _atom_site_fract_z
  _atom_site_occupancy
  Ni  Ni1       1.0  0.50000  0.50000  0.00000  1.0000
  Ni  Ni2       1.0  0.00000  0.00000  0.00000  1.0000
  Fe  Fe1       1.0  0.75000  0.25000  0.50000  1.0000
  Fe  Fe2       1.0  0.25000  0.75000  0.50000  1.0000
  Fe  Fe3       1.0  0.75000  0.75000  0.50000  1.0000
  Fe  Fe4       1.0  0.25000  0.25000  0.50000  1.0000
  O   O1        1.0  0.66170  0.28930  0.58560  1.0000
  O   O2        1.0  0.33830  0.71070  0.58560  1.0000
  O   O3        1.0  0.66170  0.71070  0.41440  1.0000
  O   O4        1.0  0.33830  0.28930  0.41440  1.0000
  O   O5        1.0  0.16170  0.78930  0.58560  1.0000
  O   O6        1.0  0.83830  0.21070  0.58560  1.0000
  O   O7        1.0  0.16170  0.21070  0.41440  1.0000
  O   O8        1.0  0.83830  0.78930  0.41440  1.0000
  O   O9        1.0  0.33830  0.71070  0.41440  1.0000
  O   O10       1.0  0.66170  0.28930  0.41440  1.0000
  O   O11       1.0  0.33830  0.28930  0.58560  1.0000
  O   O12       1.0  0.66170  0.71070  0.58560  1.0000
  O   O13       1.0  0.83830  0.21070  0.41440  1.0000
  O   O14       1.0  0.16170  0.78930  0.41440  1.0000
  O   O15       1.0  0.83830  0.78930  0.58560  1.0000
  O   O16       1.0  0.16170  0.21070  0.58560  1.0000
  O   O17       1.0  0.00000  0.27746  0.50000  1.0000
  O   O18       1.0  0.00000  0.72254  0.50000  1.0000
  O   O19       1.0  0.50000  0.77746  0.50000  1.0000
  O   O20       1.0  0.50000  0.22254  0.50000  1.0000
  N   N1        1.0  0.50000  0.44087  0.00000  1.0000
  N   N2        1.0  0.50000  0.55913  0.00000  1.0000
  N   N3        1.0  0.00000  0.94087  0.00000  1.0000
  N   N4        1.0  0.00000  0.05913  0.00000  1.0000
  N   N5        1.0  0.50000  0.50000  0.88220  1.0000
  N   N6        1.0  0.50000  0.50000  0.11780  1.0000
  N   N7        1.0  0.00000  0.00000  0.88220  1.0000
  N   N8        1.0  0.00000  0.00000  0.11780  1.0000
  C   C1        1.0  0.50000  0.37329  0.95960  1.0000
  C   C2        1.0  0.50000  0.62671  0.95960  1.0000
  C   C3        1.0  0.50000  0.62671  0.04040  1.0000
  C   C4        1.0  0.50000  0.37329  0.04040  1.0000
  C   C5        1.0  0.00000  0.87329  0.95960  1.0000
  C   C6        1.0  0.00000  0.12671  0.95960  1.0000
  C   C7        1.0  0.00000  0.12671  0.04040  1.0000
  C   C8        1.0  0.00000  0.87329  0.04040  1.0000
  H   H1        1.0  0.50000  0.35060  0.92612  1.0000
  H   H2        1.0  0.50000  0.64940  0.92612  1.0000
  H   H3        1.0  0.50000  0.64940  0.07388  1.0000
  H   H4        1.0  0.50000  0.35060  0.07388  1.0000
  H   H5        1.0  0.00000  0.85060  0.92612  1.0000
  H   H6        1.0  0.00000  0.14940  0.92612  1.0000
  H   H7        1.0  0.00000  0.14940  0.07388  1.0000
  H   H8        1.0  0.00000  0.85060  0.07388  1.0000
  C   C9        1.0  0.50000  0.41507  0.93440  1.0000
  C   C10       1.0  0.50000  0.58493  0.93440  1.0000
  C   C11       1.0  0.50000  0.58493  0.06560  1.0000
  C   C12       1.0  0.50000  0.41507  0.06560  1.0000
  C   C13       1.0  0.00000  0.91507  0.93440  1.0000
  C   C14       1.0  0.00000  0.08493  0.93440  1.0000
  C   C15       1.0  0.00000  0.08493  0.06560  1.0000
  C   C16       1.0  0.00000  0.91507  0.06560  1.0000
  C   C17       1.0  0.50000  0.42668  0.85440  1.0000
  C   C18       1.0  0.50000  0.57332  0.85440  1.0000
  C   C19       1.0  0.50000  0.57332  0.14560  1.0000
  C   C20       1.0  0.50000  0.42668  0.14560  1.0000
  C   C21       1.0  0.00000  0.92668  0.85440  1.0000
  C   C22       1.0  0.00000  0.07332  0.85440  1.0000
  C   C23       1.0  0.00000  0.07332  0.14560  1.0000
  C   C24       1.0  0.00000  0.92668  0.14560  1.0000
  C   C25       1.0  0.50000  0.46711  0.83080  1.0000
  C   C26       1.0  0.50000  0.53289  0.83080  1.0000
  C   C27       1.0  0.50000  0.53289  0.16920  1.0000
  C   C28       1.0  0.50000  0.46711  0.16920  1.0000
  C   C29       1.0  0.00000  0.96711  0.83080  1.0000
  C   C30       1.0  0.00000  0.03289  0.83080  1.0000
  C   C31       1.0  0.00000  0.03289  0.16920  1.0000
  C   C32       1.0  0.00000  0.96711  0.16920  1.0000
  C   C33       1.0  0.50000  0.47952  0.74850  1.0000
  C   C34       1.0  0.50000  0.52048  0.74850  1.0000
  C   C35       1.0  0.50000  0.52048  0.25150  1.0000
  C   C36       1.0  0.50000  0.47952  0.25150  1.0000
  C   C37       1.0  0.00000  0.97952  0.74850  1.0000
  C   C38       1.0  0.00000  0.02048  0.74850  1.0000
  C   C39       1.0  0.00000  0.02048  0.25150  1.0000
  C   C40       1.0  0.00000  0.97952  0.25150  1.0000
  H   H9        1.0  0.50000  0.46266  0.70343  1.0000
  H   H10       1.0  0.50000  0.53734  0.70343  1.0000
  H   H11       1.0  0.50000  0.53734  0.29657  1.0000
  H   H12       1.0  0.50000  0.46266  0.29657  1.0000
  H   H13       1.0  0.00000  0.96266  0.70343  1.0000
  H   H14       1.0  0.00000  0.03734  0.70343  1.0000
  H   H15       1.0  0.00000  0.03734  0.29657  1.0000
  H   H16       1.0  0.00000  0.96266  0.29657  1.0000
  C   C41       1.0  0.50000  0.39422  0.79100  1.0000
  C   C42       1.0  0.50000  0.60578  0.79100  1.0000
  C   C43       1.0  0.50000  0.60578  0.20900  1.0000
  C   C44       1.0  0.50000  0.39422  0.20900  1.0000
  C   C45       1.0  0.00000  0.89422  0.79100  1.0000
  C   C46       1.0  0.00000  0.10578  0.79100  1.0000
  C   C47       1.0  0.00000  0.10578  0.20900  1.0000
  C   C48       1.0  0.00000  0.89422  0.20900  1.0000
  C   C49       1.0  0.67220  0.37915  0.76170  1.0000
  C   C50       1.0  0.32780  0.62085  0.76170  1.0000
  C   C51       1.0  0.67220  0.62085  0.23830  1.0000
  C   C52       1.0  0.32780  0.37915  0.23830  1.0000
  C   C53       1.0  0.17220  0.87915  0.76170  1.0000
  C   C54       1.0  0.82780  0.12085  0.76170  1.0000
  C   C55       1.0  0.17220  0.12085  0.23830  1.0000
  C   C56       1.0  0.82780  0.87915  0.23830  1.0000
  C   C57       1.0  0.32780  0.62085  0.23830  1.0000
  C   C58       1.0  0.67220  0.37915  0.23830  1.0000
  C   C59       1.0  0.32780  0.37915  0.76170  1.0000
  C   C60       1.0  0.67220  0.62085  0.76170  1.0000
  C   C61       1.0  0.82780  0.12085  0.23830  1.0000
  C   C62       1.0  0.17220  0.87915  0.23830  1.0000
  C   C63       1.0  0.82780  0.87915  0.76170  1.0000
  C   C64       1.0  0.17220  0.12085  0.76170  1.0000
  H   H17       1.0  0.79024  0.38876  0.78188  1.0000
  H   H18       1.0  0.20976  0.61124  0.78188  1.0000
  H   H19       1.0  0.79024  0.61124  0.21812  1.0000
  H   H20       1.0  0.20976  0.38876  0.21812  1.0000
  H   H21       1.0  0.29024  0.88876  0.78188  1.0000
  H   H22       1.0  0.70976  0.11124  0.78188  1.0000
  H   H23       1.0  0.29024  0.11124  0.21812  1.0000
  H   H24       1.0  0.70976  0.88876  0.21812  1.0000
  H   H25       1.0  0.20976  0.61124  0.21812  1.0000
  H   H26       1.0  0.79024  0.38876  0.21812  1.0000
  H   H27       1.0  0.20976  0.38876  0.78188  1.0000
  H   H28       1.0  0.79024  0.61124  0.78188  1.0000
  H   H29       1.0  0.70976  0.11124  0.21812  1.0000
  H   H30       1.0  0.29024  0.88876  0.21812  1.0000
  H   H31       1.0  0.70976  0.88876  0.78188  1.0000
  H   H32       1.0  0.29024  0.11124  0.78188  1.0000
  C   C65       1.0  0.67120  0.34949  0.70190  1.0000
  C   C66       1.0  0.32880  0.65051  0.70190  1.0000
  C   C67       1.0  0.67120  0.65051  0.29810  1.0000
  C   C68       1.0  0.32880  0.34949  0.29810  1.0000
  C   C69       1.0  0.17120  0.84949  0.70190  1.0000
  C   C70       1.0  0.82880  0.15051  0.70190  1.0000
  C   C71       1.0  0.17120  0.15051  0.29810  1.0000
  C   C72       1.0  0.82880  0.84949  0.29810  1.0000
  C   C73       1.0  0.32880  0.65051  0.29810  1.0000
  C   C74       1.0  0.67120  0.34949  0.29810  1.0000
  C   C75       1.0  0.32880  0.34949  0.70190  1.0000
  C   C76       1.0  0.67120  0.65051  0.70190  1.0000
  C   C77       1.0  0.82880  0.15051  0.29810  1.0000
  C   C78       1.0  0.17120  0.84949  0.29810  1.0000
  C   C79       1.0  0.82880  0.84949  0.70190  1.0000
  C   C80       1.0  0.17120  0.15051  0.70190  1.0000
  H   H33       1.0  0.78900  0.33995  0.68140  1.0000
  H   H34       1.0  0.21100  0.66005  0.68140  1.0000
  H   H35       1.0  0.78900  0.66005  0.31860  1.0000
  H   H36       1.0  0.21100  0.33995  0.31860  1.0000
  H   H37       1.0  0.28900  0.83995  0.68140  1.0000
  H   H38       1.0  0.71100  0.16005  0.68140  1.0000
  H   H39       1.0  0.28900  0.16005  0.31860  1.0000
  H   H40       1.0  0.71100  0.83995  0.31860  1.0000
  H   H41       1.0  0.21100  0.66005  0.31860  1.0000
  H   H42       1.0  0.78900  0.33995  0.31860  1.0000
  H   H43       1.0  0.21100  0.33995  0.68140  1.0000
  H   H44       1.0  0.78900  0.66005  0.68140  1.0000
  H   H45       1.0  0.71100  0.16005  0.31860  1.0000
  H   H46       1.0  0.28900  0.83995  0.31860  1.0000
  H   H47       1.0  0.71100  0.83995  0.68140  1.0000
  H   H48       1.0  0.28900  0.16005  0.68140  1.0000
  C   C81       1.0  0.50000  0.33422  0.67300  1.0000
  C   C82       1.0  0.50000  0.66578  0.67300  1.0000
  C   C83       1.0  0.50000  0.66578  0.32700  1.0000
  C   C84       1.0  0.50000  0.33422  0.32700  1.0000
  C   C85       1.0  0.00000  0.83422  0.67300  1.0000
  C   C86       1.0  0.00000  0.16578  0.67300  1.0000
  C   C87       1.0  0.00000  0.16578  0.32700  1.0000
  C   C88       1.0  0.00000  0.83422  0.32700  1.0000
  C   C89       1.0  0.50000  0.30153  0.61030  1.0000
  C   C90       1.0  0.50000  0.69847  0.61030  1.0000
  C   C91       1.0  0.50000  0.69847  0.38970  1.0000
  C   C92       1.0  0.50000  0.30153  0.38970  1.0000
  C   C93       1.0  0.00000  0.80153  0.61030  1.0000
  C   C94       1.0  0.00000  0.19847  0.61030  1.0000
  C   C95       1.0  0.00000  0.19847  0.38970  1.0000
  C   C96       1.0  0.00000  0.80153  0.38970  1.0000
