data_image0
_chemical_formula_structural       Co2Si8F32N8C8H4C4H4C16H4C4H4C76H12C4H12C4H12C4H12C4H12C4H12
_chemical_formula_sum              "Co2 Si8 F32 N8 C128 H88"
_cell_length_a       12.176
_cell_length_b       14.488
_cell_length_c       23.065
_cell_angle_alpha    90
_cell_angle_beta     92.255
_cell_angle_gamma    90

_space_group_name_H-M_alt    "P 1"
_space_group_IT_number       1

loop_
  _space_group_symop_operation_xyz
  'x, y, z'

loop_
  _atom_site_type_symbol
  _atom_site_label
  _atom_site_symmetry_multiplicity
  _atom_site_fract_x
  _atom_site_fract_y
  _atom_site_fract_z
  _atom_site_occupancy
  Co  Co1       1.0  0.50000  0.00000  0.00000  1.0000
  Co  Co2       1.0  0.00000  0.50000  0.50000  1.0000
  Si  Si1       1.0  0.48840  0.58950  0.37399  1.0000
  Si  Si2       1.0  0.01160  0.08950  0.12601  1.0000
  Si  Si3       1.0  0.51160  0.41050  0.62601  1.0000
  Si  Si4       1.0  0.98840  0.91050  0.87399  1.0000
  Si  Si5       1.0  0.15270  0.52690  0.78748  1.0000
  Si  Si6       1.0  0.34730  0.02690  0.71252  1.0000
  Si  Si7       1.0  0.84730  0.47310  0.21252  1.0000
  Si  Si8       1.0  0.65270  0.97310  0.28748  1.0000
  F   F1        1.0  0.30040  0.26360  0.13290  1.0000
  F   F2        1.0  0.19960  0.76360  0.36710  1.0000
  F   F3        1.0  0.69960  0.73640  0.86710  1.0000
  F   F4        1.0  0.80040  0.23640  0.63290  1.0000
  F   F5        1.0  0.29100  0.38630  0.21870  1.0000
  F   F6        1.0  0.20900  0.88630  0.28130  1.0000
  F   F7        1.0  0.70900  0.61370  0.78130  1.0000
  F   F8        1.0  0.79100  0.11370  0.71870  1.0000
  F   F9        1.0  0.65810  0.18210  0.19600  1.0000
  F   F10       1.0  0.84190  0.68210  0.30400  1.0000
  F   F11       1.0  0.34190  0.81790  0.80400  1.0000
  F   F12       1.0  0.15810  0.31790  0.69600  1.0000
  F   F13       1.0  0.64940  0.30610  0.28160  1.0000
  F   F14       1.0  0.85060  0.80610  0.21840  1.0000
  F   F15       1.0  0.35060  0.69390  0.71840  1.0000
  F   F16       1.0  0.14940  0.19390  0.78160  1.0000
  F   F17       1.0  0.61590  0.26360  0.83680  1.0000
  F   F18       1.0  0.88410  0.76360  0.66320  1.0000
  F   F19       1.0  0.38410  0.73640  0.16320  1.0000
  F   F20       1.0  0.11590  0.23640  0.33680  1.0000
  F   F21       1.0  0.75610  0.38010  0.78870  1.0000
  F   F22       1.0  0.74390  0.88010  0.71130  1.0000
  F   F23       1.0  0.24390  0.61990  0.21130  1.0000
  F   F24       1.0  0.25610  0.11990  0.28870  1.0000
  F   F25       1.0  0.89800  0.15910  0.96530  1.0000
  F   F26       1.0  0.60200  0.65910  0.53470  1.0000
  F   F27       1.0  0.10200  0.84090  0.03470  1.0000
  F   F28       1.0  0.39800  0.34090  0.46530  1.0000
  F   F29       1.0  0.03840  0.27540  0.91480  1.0000
  F   F30       1.0  0.46160  0.77540  0.58520  1.0000
  F   F31       1.0  0.96160  0.72460  0.08520  1.0000
  F   F32       1.0  0.53840  0.22460  0.41480  1.0000
  N   N1        1.0  0.42320  0.00220  0.07410  1.0000
  N   N2        1.0  0.07680  0.50220  0.42590  1.0000
  N   N3        1.0  0.57680  0.99780  0.92590  1.0000
  N   N4        1.0  0.92320  0.49780  0.57410  1.0000
  N   N5        1.0  0.56800  0.12070  0.01880  1.0000
  N   N6        1.0  0.93200  0.62070  0.48120  1.0000
  N   N7        1.0  0.43200  0.87930  0.98120  1.0000
  N   N8        1.0  0.06800  0.37930  0.51880  1.0000
  C   C1        1.0  0.63600  0.17190  0.98570  1.0000
  C   C2        1.0  0.86400  0.67190  0.51430  1.0000
  C   C3        1.0  0.36400  0.82810  0.01430  1.0000
  C   C4        1.0  0.13600  0.32810  0.48570  1.0000
  C   C5        1.0  0.66400  0.25890  0.01360  1.0000
  C   C6        1.0  0.83600  0.75890  0.48640  1.0000
  C   C7        1.0  0.33600  0.74110  0.98640  1.0000
  C   C8        1.0  0.16400  0.24110  0.51360  1.0000
  H   H1        1.0  0.71080  0.30560  0.99940  1.0000
  H   H2        1.0  0.78920  0.80560  0.50060  1.0000
  H   H3        1.0  0.28920  0.69440  0.00060  1.0000
  H   H4        1.0  0.21080  0.19440  0.49940  1.0000
  C   C9        1.0  0.61130  0.26040  0.06300  1.0000
  C   C10       1.0  0.88870  0.76040  0.43700  1.0000
  C   C11       1.0  0.38870  0.73960  0.93700  1.0000
  C   C12       1.0  0.11130  0.23960  0.56300  1.0000
  H   H5        1.0  0.61290  0.30900  0.09070  1.0000
  H   H6        1.0  0.88710  0.80900  0.40930  1.0000
  H   H7        1.0  0.38710  0.69100  0.90930  1.0000
  H   H8        1.0  0.11290  0.19100  0.59070  1.0000
  C   C13       1.0  0.55160  0.17530  0.06680  1.0000
  C   C14       1.0  0.94840  0.67530  0.43320  1.0000
  C   C15       1.0  0.44840  0.82470  0.93320  1.0000
  C   C16       1.0  0.05160  0.32470  0.56680  1.0000
  C   C17       1.0  0.48530  0.15050  0.11250  1.0000
  C   C18       1.0  0.01470  0.65050  0.38750  1.0000
  C   C19       1.0  0.51470  0.84950  0.88750  1.0000
  C   C20       1.0  0.98530  0.34950  0.61250  1.0000
  C   C21       1.0  0.42860  0.06960  0.11580  1.0000
  C   C22       1.0  0.07140  0.56960  0.38420  1.0000
  C   C23       1.0  0.57140  0.93040  0.88420  1.0000
  C   C24       1.0  0.92860  0.43040  0.61580  1.0000
  C   C25       1.0  0.36310  0.04400  0.16420  1.0000
  C   C26       1.0  0.13690  0.54400  0.33580  1.0000
  C   C27       1.0  0.63690  0.95600  0.83580  1.0000
  C   C28       1.0  0.86310  0.45600  0.66420  1.0000
  H   H9        1.0  0.35370  0.07920  0.19840  1.0000
  H   H10       1.0  0.14630  0.57920  0.30160  1.0000
  H   H11       1.0  0.64630  0.92080  0.80160  1.0000
  H   H12       1.0  0.85370  0.42080  0.69840  1.0000
  C   C29       1.0  0.31910  0.96330  0.15220  1.0000
  C   C30       1.0  0.18090  0.46330  0.34780  1.0000
  C   C31       1.0  0.68090  0.03670  0.84780  1.0000
  C   C32       1.0  0.81910  0.53670  0.65220  1.0000
  H   H13       1.0  0.27180  0.92900  0.17590  1.0000
  H   H14       1.0  0.22820  0.42900  0.32410  1.0000
  H   H15       1.0  0.72820  0.07100  0.82410  1.0000
  H   H16       1.0  0.77180  0.57100  0.67590  1.0000
  C   C33       1.0  0.35670  0.93650  0.09570  1.0000
  C   C34       1.0  0.14330  0.43650  0.40430  1.0000
  C   C35       1.0  0.64330  0.06350  0.90430  1.0000
  C   C36       1.0  0.85670  0.56350  0.59570  1.0000
  C   C37       1.0  0.67300  0.14430  0.93210  1.0000
  C   C38       1.0  0.82700  0.64430  0.56790  1.0000
  C   C39       1.0  0.32700  0.85570  0.06790  1.0000
  C   C40       1.0  0.17300  0.35570  0.43210  1.0000
  C   C41       1.0  0.47950  0.21880  0.16100  1.0000
  C   C42       1.0  0.02050  0.71880  0.33900  1.0000
  C   C43       1.0  0.52050  0.78120  0.83900  1.0000
  C   C44       1.0  0.97950  0.28120  0.66100  1.0000
  C   C45       1.0  0.38700  0.27190  0.16890  1.0000
  C   C46       1.0  0.11300  0.77190  0.33110  1.0000
  C   C47       1.0  0.61300  0.72810  0.83110  1.0000
  C   C48       1.0  0.88700  0.22810  0.66890  1.0000
  C   C49       1.0  0.38090  0.33730  0.21380  1.0000
  C   C50       1.0  0.11910  0.83730  0.28620  1.0000
  C   C51       1.0  0.61910  0.66270  0.78620  1.0000
  C   C52       1.0  0.88090  0.16270  0.71380  1.0000
  C   C53       1.0  0.47080  0.35020  0.25270  1.0000
  C   C54       1.0  0.02920  0.85020  0.24730  1.0000
  C   C55       1.0  0.52920  0.64980  0.74730  1.0000
  C   C56       1.0  0.97080  0.14980  0.75270  1.0000
  C   C57       1.0  0.55920  0.29770  0.24530  1.0000
  C   C58       1.0  0.94080  0.79770  0.25470  1.0000
  C   C59       1.0  0.44080  0.70230  0.75470  1.0000
  C   C60       1.0  0.05920  0.20230  0.74530  1.0000
  C   C61       1.0  0.56550  0.23200  0.20060  1.0000
  C   C62       1.0  0.93450  0.73200  0.29940  1.0000
  C   C63       1.0  0.43450  0.76800  0.79940  1.0000
  C   C64       1.0  0.06550  0.26800  0.70060  1.0000
  C   C65       1.0  0.46910  0.42160  0.29600  1.0000
  C   C66       1.0  0.03090  0.92160  0.20400  1.0000
  C   C67       1.0  0.53090  0.57840  0.70400  1.0000
  C   C68       1.0  0.96910  0.07840  0.79600  1.0000
  C   C69       1.0  0.47230  0.48330  0.32940  1.0000
  C   C70       1.0  0.02770  0.98330  0.17060  1.0000
  C   C71       1.0  0.52770  0.51670  0.67060  1.0000
  C   C72       1.0  0.97230  0.01670  0.82940  1.0000
  C   C73       1.0  0.75190  0.20850  0.90290  1.0000
  C   C74       1.0  0.74810  0.70850  0.59710  1.0000
  C   C75       1.0  0.24810  0.79150  0.09710  1.0000
  C   C76       1.0  0.25190  0.29150  0.40290  1.0000
  C   C77       1.0  0.72040  0.26520  0.85770  1.0000
  C   C78       1.0  0.77960  0.76520  0.64230  1.0000
  C   C79       1.0  0.27960  0.73480  0.14230  1.0000
  C   C80       1.0  0.22040  0.23480  0.35770  1.0000
  C   C81       1.0  0.79460  0.32590  0.83230  1.0000
  C   C82       1.0  0.70540  0.82590  0.66770  1.0000
  C   C83       1.0  0.20540  0.67410  0.16770  1.0000
  C   C84       1.0  0.29460  0.17410  0.33230  1.0000
  C   C85       1.0  0.90060  0.33070  0.85070  1.0000
  C   C86       1.0  0.59940  0.83070  0.64930  1.0000
  C   C87       1.0  0.09940  0.66930  0.14930  1.0000
  C   C88       1.0  0.40060  0.16930  0.35070  1.0000
  C   C89       1.0  0.93280  0.27390  0.89520  1.0000
  C   C90       1.0  0.56720  0.77390  0.60480  1.0000
  C   C91       1.0  0.06720  0.72610  0.10480  1.0000
  C   C92       1.0  0.43280  0.22610  0.39520  1.0000
  C   C93       1.0  0.86100  0.21170  0.92130  1.0000
  C   C94       1.0  0.63900  0.71170  0.57870  1.0000
  C   C95       1.0  0.13900  0.78830  0.07870  1.0000
  C   C96       1.0  0.36100  0.28830  0.42130  1.0000
  C   C97       1.0  0.97720  0.39380  0.82620  1.0000
  C   C98       1.0  0.52280  0.89380  0.67380  1.0000
  C   C99       1.0  0.02280  0.60620  0.17380  1.0000
  C   C100      1.0  0.47720  0.10620  0.32620  1.0000
  C   C101      1.0  0.04380  0.44330  0.80760  1.0000
  C   C102      1.0  0.45620  0.94330  0.69240  1.0000
  C   C103      1.0  0.95620  0.55670  0.19240  1.0000
  C   C104      1.0  0.54380  0.05670  0.30760  1.0000
  C   C105      1.0  0.40010  0.58190  0.43730  1.0000
  C   C106      1.0  0.09990  0.08190  0.06270  1.0000
  C   C107      1.0  0.59990  0.41810  0.56270  1.0000
  C   C108      1.0  0.90010  0.91810  0.93730  1.0000
  H   H17       1.0  0.42530  0.53100  0.46240  1.0000
  H   H18       1.0  0.07470  0.03100  0.03760  1.0000
  H   H19       1.0  0.57470  0.46900  0.53760  1.0000
  H   H20       1.0  0.92530  0.96900  0.96240  1.0000
  H   H21       1.0  0.32390  0.57080  0.42380  1.0000
  H   H22       1.0  0.17610  0.07080  0.07620  1.0000
  H   H23       1.0  0.67610  0.42920  0.57620  1.0000
  H   H24       1.0  0.82390  0.92920  0.92380  1.0000
  H   H25       1.0  0.40440  0.64000  0.45910  1.0000
  H   H26       1.0  0.09560  0.14000  0.04090  1.0000
  H   H27       1.0  0.59560  0.36000  0.54090  1.0000
  H   H28       1.0  0.90440  0.86000  0.95910  1.0000
  C   C109      1.0  0.63610  0.59510  0.39930  1.0000
  C   C110      1.0  0.86390  0.09510  0.10070  1.0000
  C   C111      1.0  0.36390  0.40490  0.60070  1.0000
  C   C112      1.0  0.13610  0.90490  0.89930  1.0000
  H   H29       1.0  0.64710  0.55790  0.43450  1.0000
  H   H30       1.0  0.85290  0.05790  0.06550  1.0000
  H   H31       1.0  0.35290  0.44210  0.56550  1.0000
  H   H32       1.0  0.14710  0.94210  0.93450  1.0000
  H   H33       1.0  0.65630  0.65930  0.40770  1.0000
  H   H34       1.0  0.84370  0.15930  0.09230  1.0000
  H   H35       1.0  0.34370  0.34070  0.59230  1.0000
  H   H36       1.0  0.15630  0.84070  0.90770  1.0000
  H   H37       1.0  0.68230  0.57090  0.36890  1.0000
  H   H38       1.0  0.81770  0.07090  0.13110  1.0000
  H   H39       1.0  0.31770  0.42910  0.63110  1.0000
  H   H40       1.0  0.18230  0.92910  0.86890  1.0000
  C   C113      1.0  0.43950  0.68380  0.32370  1.0000
  C   C114      1.0  0.06050  0.18380  0.17630  1.0000
  C   C115      1.0  0.56050  0.31620  0.67630  1.0000
  C   C116      1.0  0.93950  0.81620  0.82370  1.0000
  H   H41       1.0  0.42870  0.74050  0.34590  1.0000
  H   H42       1.0  0.07130  0.24050  0.15410  1.0000
  H   H43       1.0  0.57130  0.25950  0.65410  1.0000
  H   H44       1.0  0.92870  0.75950  0.84590  1.0000
  H   H45       1.0  0.36990  0.66550  0.30430  1.0000
  H   H46       1.0  0.13010  0.16550  0.19570  1.0000
  H   H47       1.0  0.63010  0.33450  0.69570  1.0000
  H   H48       1.0  0.86990  0.83450  0.80430  1.0000
  H   H49       1.0  0.49450  0.69470  0.29460  1.0000
  H   H50       1.0  0.00550  0.19470  0.20540  1.0000
  H   H51       1.0  0.50550  0.30530  0.70540  1.0000
  H   H52       1.0  0.99450  0.80530  0.79460  1.0000
  C   C117      1.0  0.16630  0.61360  0.84520  1.0000
  C   C118      1.0  0.33370  0.11360  0.65480  1.0000
  C   C119      1.0  0.83370  0.38640  0.15480  1.0000
  C   C120      1.0  0.66630  0.88640  0.34520  1.0000
  H   H53       1.0  0.09990  0.61350  0.86780  1.0000
  H   H54       1.0  0.40010  0.11350  0.63220  1.0000
  H   H55       1.0  0.90010  0.38650  0.13220  1.0000
  H   H56       1.0  0.59990  0.88650  0.36780  1.0000
  H   H57       1.0  0.17610  0.67470  0.82800  1.0000
  H   H58       1.0  0.32390  0.17470  0.67200  1.0000
  H   H59       1.0  0.82390  0.32530  0.17200  1.0000
  H   H60       1.0  0.67610  0.82530  0.32800  1.0000
  H   H61       1.0  0.23020  0.59890  0.87070  1.0000
  H   H62       1.0  0.26980  0.09890  0.62930  1.0000
  H   H63       1.0  0.76980  0.40110  0.12930  1.0000
  H   H64       1.0  0.73020  0.90110  0.37070  1.0000
  C   C121      1.0  0.12140  0.56450  0.71540  1.0000
  C   C122      1.0  0.37860  0.06450  0.78460  1.0000
  C   C123      1.0  0.87860  0.43550  0.28460  1.0000
  C   C124      1.0  0.62140  0.93550  0.21540  1.0000
  H   H65       1.0  0.09760  0.51260  0.69070  1.0000
  H   H66       1.0  0.40240  0.01260  0.80930  1.0000
  H   H67       1.0  0.90240  0.48740  0.30930  1.0000
  H   H68       1.0  0.59760  0.98740  0.19070  1.0000
  H   H69       1.0  0.06110  0.60890  0.71790  1.0000
  H   H70       1.0  0.43890  0.10890  0.78210  1.0000
  H   H71       1.0  0.93890  0.39110  0.28210  1.0000
  H   H72       1.0  0.56110  0.89110  0.21790  1.0000
  H   H73       1.0  0.18480  0.59480  0.69860  1.0000
  H   H74       1.0  0.31520  0.09480  0.80140  1.0000
  H   H75       1.0  0.81520  0.40520  0.30140  1.0000
  H   H76       1.0  0.68480  0.90520  0.19860  1.0000
  C   C125      1.0  0.29030  0.46150  0.78350  1.0000
  C   C126      1.0  0.20970  0.96150  0.71650  1.0000
  C   C127      1.0  0.70970  0.53850  0.21650  1.0000
  C   C128      1.0  0.79030  0.03850  0.28350  1.0000
  H   H77       1.0  0.29960  0.43990  0.74370  1.0000
  H   H78       1.0  0.20040  0.93990  0.75630  1.0000
  H   H79       1.0  0.70040  0.56010  0.25630  1.0000
  H   H80       1.0  0.79960  0.06010  0.24370  1.0000
  H   H81       1.0  0.29010  0.40840  0.80990  1.0000
  H   H82       1.0  0.20990  0.90840  0.69010  1.0000
  H   H83       1.0  0.70990  0.59160  0.19010  1.0000
  H   H84       1.0  0.79010  0.09160  0.30990  1.0000
  H   H85       1.0  0.35100  0.50290  0.79490  1.0000
  H   H86       1.0  0.14900  0.00290  0.70510  1.0000
  H   H87       1.0  0.64900  0.49710  0.20510  1.0000
  H   H88       1.0  0.85100  0.99710  0.29490  1.0000
